Version 4
SHEET 1 2868 728
WIRE -3744 -736 -3744 -768
WIRE -3744 -736 -3856 -736
WIRE -3744 -704 -3744 -736
WIRE -1520 -704 -1520 -720
WIRE -3856 -688 -3856 -736
WIRE -1520 -672 -1520 -704
WIRE -2112 -624 -2112 -640
WIRE -3856 -576 -3856 -624
WIRE -3744 -576 -3744 -624
WIRE -3392 -560 -3392 -608
WIRE -3024 -544 -3024 -592
WIRE -2752 -544 -3024 -544
WIRE -1648 -544 -1728 -544
WIRE -1584 -544 -1648 -544
WIRE -1520 -544 -1520 -592
WIRE -1520 -544 -1584 -544
WIRE -976 -512 -976 -560
WIRE -976 -512 -1104 -512
WIRE -3024 -496 -3024 -544
WIRE -2752 -496 -2752 -544
WIRE -2112 -496 -2112 -544
WIRE -976 -496 -976 -512
WIRE -1648 -480 -1648 -544
WIRE -1584 -480 -1584 -544
WIRE -1520 -480 -1520 -544
WIRE -3392 -464 -3392 -480
WIRE -3392 -464 -3504 -464
WIRE -3504 -448 -3504 -464
WIRE -3392 -432 -3392 -464
WIRE -1728 -432 -1728 -544
WIRE -3504 -368 -3504 -384
WIRE -2864 -368 -2912 -368
WIRE -2752 -368 -2752 -416
WIRE -2752 -368 -2784 -368
WIRE -2704 -368 -2752 -368
WIRE -2528 -368 -2640 -368
WIRE -1104 -368 -1104 -512
WIRE -976 -352 -976 -416
WIRE -928 -352 -976 -352
WIRE -816 -352 -864 -352
WIRE -768 -352 -816 -352
WIRE -624 -352 -688 -352
WIRE -512 -352 -624 -352
WIRE -2112 -336 -2112 -416
WIRE -2080 -336 -2112 -336
WIRE -1984 -336 -2016 -336
WIRE -1648 -336 -1648 -416
WIRE -1584 -336 -1584 -416
WIRE -1584 -336 -1648 -336
WIRE -1520 -336 -1520 -400
WIRE -1520 -336 -1584 -336
WIRE -1488 -336 -1520 -336
WIRE -1376 -336 -1424 -336
WIRE -3392 -320 -3392 -352
WIRE -3392 -320 -3504 -320
WIRE -3344 -320 -3392 -320
WIRE -3248 -320 -3280 -320
WIRE -2752 -320 -2752 -368
WIRE -512 -320 -512 -352
WIRE -1520 -304 -1520 -336
WIRE -816 -304 -816 -352
WIRE -624 -304 -624 -352
WIRE -3504 -288 -3504 -320
WIRE -2112 -288 -2112 -336
WIRE -3024 -272 -3024 -416
WIRE -2992 -272 -3024 -272
WIRE -2912 -272 -2912 -368
WIRE -2912 -272 -2928 -272
WIRE -2816 -272 -2912 -272
WIRE -1728 -256 -1728 -352
WIRE -1728 -256 -1776 -256
WIRE -1584 -256 -1728 -256
WIRE -976 -256 -976 -352
WIRE -3392 -240 -3392 -320
WIRE -2400 -240 -2464 -240
WIRE -2160 -240 -2400 -240
WIRE -2224 -208 -2256 -208
WIRE -2160 -208 -2224 -208
WIRE -1104 -208 -1104 -288
WIRE -1104 -208 -1168 -208
WIRE -1040 -208 -1104 -208
WIRE -816 -192 -816 -240
WIRE -624 -192 -624 -240
WIRE -512 -192 -512 -240
WIRE -3504 -176 -3504 -224
WIRE -3504 -176 -3616 -176
WIRE -3440 -176 -3504 -176
WIRE -2112 -160 -2112 -192
WIRE -2000 -160 -2112 -160
WIRE -1728 -160 -1728 -256
WIRE -1520 -160 -1520 -208
WIRE -2752 -144 -2752 -224
WIRE -2400 -144 -2400 -240
WIRE -2224 -144 -2224 -208
WIRE -3392 -128 -3392 -144
WIRE -3296 -128 -3392 -128
WIRE -3504 -112 -3504 -176
WIRE -3024 -112 -3024 -272
WIRE -2112 -112 -2112 -160
WIRE -3616 -96 -3616 -176
WIRE -3392 -96 -3392 -128
WIRE -2000 -96 -2000 -160
WIRE -3296 -80 -3296 -128
WIRE -1728 -16 -1728 -80
WIRE -1520 -16 -1520 -80
WIRE -1520 -16 -1728 -16
WIRE -2400 16 -2400 -64
WIRE -2224 16 -2224 -64
WIRE -2224 16 -2400 16
WIRE -2112 16 -2112 -32
WIRE -2112 16 -2224 16
WIRE -2000 16 -2000 -32
WIRE -2000 16 -2112 16
WIRE -1520 16 -1520 -16
WIRE -3616 32 -3616 -32
WIRE -3504 32 -3504 -32
WIRE -3504 32 -3616 32
WIRE -3392 32 -3392 -16
WIRE -3392 32 -3504 32
WIRE -3296 32 -3296 -16
WIRE -3296 32 -3392 32
WIRE -3024 32 -3024 -32
WIRE -976 32 -976 -160
WIRE -2224 48 -2224 16
WIRE -3392 80 -3392 32
FLAG -3856 -576 0
FLAG -976 32 0
FLAG -624 -192 0
FLAG -512 -192 0
FLAG -2224 48 0
FLAG -2112 -640 Vdd
FLAG -3392 -608 Vdd
FLAG -3504 -368 0
FLAG -3392 80 0
FLAG -3248 -320 oscillator
FLAG -2256 -208 oscillator
FLAG -3024 32 0
FLAG -3024 -592 Vdd
FLAG -2752 -144 0
FLAG -2528 -368 voice
FLAG -2464 -240 voice
FLAG -3744 -768 Vdd
FLAG -3744 -576 0
FLAG -1984 -336 mixer
FLAG -976 -560 Vdd
FLAG -1520 16 0
FLAG -1520 -704 Vdd
FLAG -816 -192 0
FLAG -1776 -256 mixer
FLAG -1376 -336 driver
FLAG -1168 -208 driver
SYMBOL res -2240 -160 R0
SYMATTR InstName R2
SYMATTR Value 470
SYMBOL res -2128 -128 R0
SYMATTR InstName R3
SYMATTR Value 100
SYMBOL cap -2016 -96 R0
SYMATTR InstName C1
SYMATTR Value 10n
SYMATTR SpiceLine Rser=1
SYMBOL cap -3872 -688 R0
SYMATTR InstName C4
SYMATTR Value 100n
SYMATTR SpiceLine Rser=0.4
SYMBOL cap -2016 -352 R90
WINDOW 0 0 32 VBottom 2
WINDOW 3 32 32 VTop 2
SYMATTR InstName C5
SYMATTR Value 1n
SYMBOL cap -608 -240 R180
WINDOW 0 24 56 Left 2
WINDOW 3 24 8 Left 2
SYMATTR InstName C8
SYMATTR Value 350p
SYMBOL ind -784 -336 R270
WINDOW 0 32 56 VTop 2
WINDOW 3 5 56 VBottom 2
SYMATTR InstName L2
SYMATTR Value 160n
SYMATTR SpiceLine Rser=1m
SYMBOL res -2128 -640 R0
SYMATTR InstName R4
SYMATTR Value 47
SYMBOL npn -1040 -256 R0
SYMATTR InstName Q2
SYMATTR Value 2N3553
SYMBOL xdgnmos -2160 -288 R0
SYMATTR InstName U1
SYMATTR SpiceModel BF981
SYMBOL njf -3440 -240 R0
SYMATTR InstName J1
SYMATTR Value 2N3819
SYMBOL res -3520 -128 R0
SYMATTR InstName R1
SYMATTR Value 100k
SYMBOL Misc\\xtal -3520 -288 R0
SYMATTR InstName C13
SYMATTR Value 17f
SYMATTR SpiceLine Rser=30 Lser=2m Cpar=0.87p
SYMBOL cap -3632 -96 R0
SYMATTR InstName C14
SYMATTR Value 22p
SYMBOL ind -3408 -448 R0
WINDOW 3 30 11 Left 2
SYMATTR Value 47Á
SYMATTR InstName L4
SYMBOL res -3408 -576 R0
SYMATTR InstName R9
SYMATTR Value 560
SYMBOL cap -3520 -448 R0
WINDOW 0 31 11 Left 2
SYMATTR InstName C15
SYMATTR Value 10n
SYMATTR SpiceLine Rser=0.4
SYMBOL res -3408 -112 R0
SYMATTR InstName R10
SYMATTR Value 360
SYMBOL cap -3312 -80 R0
SYMATTR InstName C16
SYMATTR Value 10n
SYMATTR SpiceLine Rser=1
SYMBOL cap -3280 -336 R90
WINDOW 0 0 32 VBottom 2
WINDOW 3 32 32 VTop 2
SYMATTR InstName C2
SYMATTR Value 10p
SYMATTR SpiceLine Rser=0.4
SYMBOL ind -2128 -512 R0
SYMATTR InstName L1
SYMATTR Value 10Á
SYMBOL voltage -3024 -128 R0
WINDOW 123 0 0 Left 0
WINDOW 39 46 56 Left 2
WINDOW 0 44 28 Left 2
WINDOW 3 47 87 Left 2
SYMATTR SpiceLine Rser=250
SYMATTR InstName electrect_microphone
SYMATTR Value SINE(0 20mV 20k)
SYMBOL res -3040 -512 R0
SYMATTR InstName R7
SYMATTR Value 10k
SYMBOL npn -2816 -320 R0
SYMATTR InstName Q1
SYMATTR Value 2N2222
SYMBOL res -2768 -512 R0
SYMATTR InstName R11
SYMATTR Value 3.3k
SYMBOL res -2768 -384 R90
WINDOW 0 0 56 VBottom 2
WINDOW 3 32 56 VTop 2
SYMATTR InstName R12
SYMATTR Value 10k
SYMBOL cap -2928 -288 R90
WINDOW 0 0 32 VBottom 2
WINDOW 3 32 32 VTop 2
SYMATTR InstName C3
SYMATTR Value 220n
SYMBOL res -2416 -160 R0
SYMATTR InstName R13
SYMATTR Value 100k
SYMBOL Misc\\battery -3744 -720 R0
WINDOW 123 0 0 Left 0
WINDOW 39 0 0 Left 0
SYMATTR InstName V1
SYMATTR Value 7.4
SYMBOL cap -2640 -384 R90
WINDOW 0 0 32 VBottom 2
WINDOW 3 32 32 VTop 2
SYMATTR InstName C6
SYMATTR Value 100n
SYMBOL npn -1584 -304 R0
SYMATTR InstName Q3
SYMATTR Value 2N2222
SYMBOL res -1744 -448 R0
SYMATTR InstName R6
SYMATTR Value 20k
SYMBOL res -1744 -176 R0
SYMATTR InstName R14
SYMATTR Value 10k
SYMBOL res -1536 -176 R0
SYMATTR InstName RE
SYMATTR Value 22
SYMBOL ind -1536 -496 R0
SYMATTR InstName L5
SYMATTR Value 0.47Á
SYMBOL cap -1600 -480 R0
SYMATTR InstName C12
SYMATTR Value 68p
SYMBOL cap -1664 -480 R0
SYMATTR InstName CV
SYMATTR Value 5.3p
SYMBOL cap -1424 -352 R90
WINDOW 0 0 32 VBottom 2
WINDOW 3 32 32 VTop 2
SYMATTR InstName C11
SYMATTR Value 22p
SYMBOL ind -992 -512 R0
SYMATTR InstName L3
SYMATTR Value 0.47Á
SYMBOL cap -800 -240 R180
WINDOW 0 24 56 Left 2
WINDOW 3 24 8 Left 2
SYMATTR InstName C9
SYMATTR Value 400p
SYMBOL res -1120 -384 R0
SYMATTR InstName dummy1
SYMATTR Value 1k
SYMBOL res -528 -336 R0
SYMATTR InstName out
SYMATTR Value 50
SYMBOL cap -864 -368 R90
WINDOW 0 0 32 VBottom 2
WINDOW 3 32 32 VTop 2
SYMATTR InstName C7
SYMATTR Value 1n
SYMBOL res -1536 -688 R0
SYMATTR InstName R5
SYMATTR Value 56
TEXT -2192 144 Left 2 !.tran 0 1.6m 1.5m 100n uic
TEXT -2200 200 Left 2 !.MODEL 2N3553 NPN BR=5.68 CJE=5.36E-11 EG=1.11 FC=0.5 IKF=0.74 IKR=0.0943 IS=1.93E-14 ISC=4.76E-14 ISE=3.16E-13 ITF=0.134 MJC=0.42 MJE=0.266 MJS=0.33 NC=1.14 NE=1.57 NF=1.01 NR=1.01 RB=8.07 RE=0.0274 VAF=252 VAR=15.8 VJC=0.583 VJE=0.646 VJS=0.75 VTF=0.1 XTB=0 XTI=3 BF=6.53E+01 CJC=3.46E-11 RC=5.18E-01 TF=2.6E-10 XTF=1.0E-01
